&share
 wrf_core = 'ARW',
 max_dom = 1,
 start_date = '2006-12-19_12:00:00',
 end_date = '2006-12-20_12:00:00',
 interval_seconds = 10800, 
 io_form_geogrid = 2,
/

&geogrid
 parent_id         =   1, 
 parent_grid_ratio =   1, 
 i_parent_start    =   1, 
 j_parent_start    =   1, 
 e_we              =  75,
 e_sn              =  70, 
 geog_data_res     = '10m',
 dx = 30000,
 dy = 30000,
 map_proj = 'lambert',
 ref_lat = 39.00
 ref_lon = -105.00
 truelat1 = 30.0,
 truelat2 = 60.0,
 stand_lon = -105.00
 geog_data_path = '/home/ruveni/WRF/WPS/geogrid/Data/geog_minimum'
/

&ungrib
 out_format = 'WPS',
 prefix = 'FILE',
/

&metgrid
 fg_name = 'FILE'
 io_form_metgrid = 2, 
/
